ieee33-dg-voltage-regulation/results/S3_Strategy1_Powers.csv
Element, Terminal, P(kW), Q(kvar),  P_Normal, Q_Normal, P_Emergency, Q_Emergency
"Transformer.SUBTRANS"  ,   1,      2177.2,      1627.4,         0.0,         0.0,         0.0,         0.0
"Transformer.SUBTRANS"  ,   2,     -2157.4,     -1519.9
"Line.L1"               ,   1,      2157.4,      1519.9,         0.0,         0.0,         0.0,         0.0
"Line.L1"               ,   2,     -2153.5,     -1518.2
"Line.L2"               ,   1,      1973.3,      1348.6,         0.0,         0.0,         0.0,         0.0
"Line.L2"               ,   2,     -1956.4,     -1340.2
"Line.L3"               ,   1,      1171.6,       887.1,         0.0,         0.0,         0.0,         0.0
"Line.L3"               ,   2,     -1166.8,      -884.8
"Line.L4"               ,   1,      1046.8,       804.8,         0.0,         0.0,         0.0,         0.0
"Line.L4"               ,   2,     -1042.7,      -802.9
"Line.L5"               ,   1,       982.7,       772.9,         0.0,         0.0,         0.0,         0.0
"Line.L5"               ,   2,      -974.8,      -766.2
"Line.L6"               ,   1,       -21.2,       360.7,         0.0,         0.0,         0.0,         0.0
"Line.L6"               ,   2,        21.3,      -360.3
"Line.L7"               ,   1,      -221.3,       260.3,         0.0,         0.0,         0.0,         0.0
"Line.L7"               ,   2,       221.8,      -260.3
"Line.L8"               ,   1,      -421.8,       160.3,         0.0,         0.0,         0.0,         0.0
"Line.L8"               ,   2,       423.2,      -159.6
"Line.L9"               ,   1,      -483.1,       139.6,         0.0,         0.0,         0.0,         0.0
"Line.L9"               ,   2,       484.8,      -138.6
"Line.L10"              ,   1,      -234.8,       178.6,         0.0,         0.0,         0.0,         0.0
"Line.L10"              ,   2,       234.9,      -178.7
"Line.L11"              ,   1,      -279.9,       148.7,         0.0,         0.0,         0.0,         0.0
"Line.L11"              ,   2,       280.2,      -148.8
"Line.L12"              ,   1,      -340.2,       113.8,         0.0,         0.0,         0.0,         0.0
"Line.L12"              ,   2,       341.3,      -113.0
"Line.L13"              ,   1,      -401.3,        78.0,         0.0,         0.0,         0.0,         0.0
"Line.L13"              ,   2,       401.9,       -77.5
"Line.L14"              ,   1,      -521.9,        -2.5,         0.0,         0.0,         0.0,         0.0
"Line.L14"              ,   2,       522.9,         3.2
"Line.L15"              ,   1,      -582.9,       -13.2,         0.0,         0.0,         0.0,         0.0
"Line.L15"              ,   2,       584.4,        14.2
"Line.L16"              ,   1,      -644.4,       -34.2,         0.0,         0.0,         0.0,         0.0
"Line.L16"              ,   2,       647.7,        38.4
"Line.L17"              ,   1,      -707.7,       -58.4,         0.0,         0.0,         0.0,         0.0
"Line.L17"              ,   2,       710.0,        60.0
"Line.L18"              ,   1,        80.2,       109.6,         0.0,         0.0,         0.0,         0.0
"Line.L18"              ,   2,       -80.2,      -109.7
"Line.L19"              ,   1,        -9.8,        69.7,         0.0,         0.0,         0.0,         0.0
"Line.L19"              ,   2,         9.8,       -69.9
"Line.L20"              ,   1,       -99.8,        29.9,         0.0,         0.0,         0.0,         0.0
"Line.L20"              ,   2,        99.8,       -30.0
"Line.L21"              ,   1,      -189.8,       -10.0,         0.0,         0.0,         0.0,         0.0
"Line.L21"              ,   2,       190.0,        10.0
"Line.L22"              ,   1,       694.8,       413.1,         0.0,         0.0,         0.0,         0.0
"Line.L22"              ,   2,      -693.0,      -412.0
"Line.L23"              ,   1,       603.0,       362.0,         0.0,         0.0,         0.0,         0.0
"Line.L23"              ,   2,      -600.3,      -360.1
"Line.L24"              ,   1,       180.3,       160.1,         0.0,         0.0,         0.0,         0.0
"Line.L24"              ,   2,      -180.0,      -160.0
"Line.L25"              ,   1,       936.0,       385.6,         0.0,         0.0,         0.0,         0.0
"Line.L25"              ,   2,      -934.7,      -385.1
"Line.L26"              ,   1,       874.7,       360.1,         0.0,         0.0,         0.0,         0.0
"Line.L26"              ,   2,      -873.1,      -359.4
"Line.L27"              ,   1,       813.1,       334.4,         0.0,         0.0,         0.0,         0.0
"Line.L27"              ,   2,      -807.9,      -330.1
"Line.L28"              ,   1,       747.9,       310.1,         0.0,         0.0,         0.0,         0.0
"Line.L28"              ,   2,      -744.6,      -307.3
"Line.L29"              ,   1,       624.6,       237.3,         0.0,         0.0,         0.0,         0.0
"Line.L29"              ,   2,      -623.1,      -236.7
"Line.L30"              ,   1,       423.1,      -363.2,         0.0,         0.0,         0.0,         0.0
"Line.L30"              ,   2,      -421.1,       365.0
"Line.L31"              ,   1,       271.2,      -435.0,         0.0,         0.0,         0.0,         0.0
"Line.L31"              ,   2,      -270.6,       435.5
"Line.L32"              ,   1,        60.6,      -535.5,         0.0,         0.0,         0.0,         0.0
"Line.L32"              ,   2,       -60.0,       536.3
"Capacitor.CAP33"       ,   1,        -0.0,      -576.3,         0.0,         0.0,         0.0,         0.0
"Capacitor.CAP33"       ,   2,         0.0,         0.0
"Load.L2"               ,   1,       100.0,        60.0
"Load.L3"               ,   1,        90.0,        40.0
"Load.L4"               ,   1,       120.0,        80.0
"Load.L5"               ,   1,        60.0,        30.0
"Load.L6"               ,   1,        60.0,        20.0
"Load.L7"               ,   1,       200.0,       100.0
"Load.L8"               ,   1,       200.0,       100.0
"Load.L9"               ,   1,        60.0,        20.0
"Load.L10"              ,   1,        60.0,        20.0
"Load.L11"              ,   1,        45.0,        30.0
"Load.L12"              ,   1,        60.0,        35.0
"Load.L13"              ,   1,        60.0,        35.0
"Load.L14"              ,   1,       120.0,        80.0
"Load.L15"              ,   1,        60.0,        10.0
"Load.L16"              ,   1,        60.0,        20.0
"Load.L17"              ,   1,        60.0,        20.0
"Load.L18"              ,   1,        90.0,        40.0
"Load.L19"              ,   1,        90.0,        40.0
"Load.L20"              ,   1,        90.0,        40.0
"Load.L21"              ,   1,        90.0,        40.0
"Load.L22"              ,   1,        90.0,        40.0
"Load.L23"              ,   1,        90.0,        50.0
"Load.L24"              ,   1,       420.0,       200.0
"Load.L25"              ,   1,       420.0,       200.0
"Load.L26"              ,   1,        60.0,        25.0
"Load.L27"              ,   1,        60.0,        25.0
"Load.L28"              ,   1,        60.0,        20.0
"Load.L29"              ,   1,       120.0,        70.0
"Load.L30"              ,   1,       200.0,       600.0
"Load.L31"              ,   1,       150.0,        70.0
"Load.L32"              ,   1,       210.0,       100.0
"Load.L33"              ,   1,        60.0,        40.0
"Generator.PV_INDUSTRIAL_PARK",   1,      -800.0,      -100.0
"Generator.BIOMASS_PLANT",   1,      -310.0,       -60.0
"Generator.MINI_HYDRO"  ,   1,      -280.0,       -50.0
"Generator.PV_ROOF_TOP" ,   1,      -240.0,       -40.0
